*Heading
** Job name: ForwardFacingStep Model name: Model-1
** Generated by: Abaqus/CAE 6.12-3
*Preprint, echo=NO, model=NO, history=NO, contact=NO
**
** PARTS
**
*Part, name=Plate
*Node
      1,           0.,  0.850000024
      2,           0.,  0.699999988
      3,           0.,  0.550000012
      4,           0.,  0.449999988
      5,           0.,  0.300000012
      6,           0.,  0.150000006
      7,           0.,           1.
      8,           0.,           0.
      9,  0.150000006,           0.
     10,  0.300000012,           0.
     11,  0.449999988,           0.
     12,  0.600000024,           0.
     13,  0.600000024,  0.100000001
     14,  0.600000024,  0.200000003
     15,         0.75,  0.200000003
     16,  0.899999976,  0.200000003
     17,   1.04999995,  0.200000003
     18,   1.20000005,  0.200000003
     19,   1.35000002,  0.200000003
     20,          1.5,  0.200000003
** ... 1116 like lines cut
*Element, type=CPS3
   1,  368,  366,  262
   2,  622,   59,  525
   3,  830,  782,   87
   4,  899,  117,  887
   5, 1118, 1112, 1111
   6, 1069,  147, 1036
   7,  811,  750,  637
   8,  547,  417,  474
   9,  474,  417,  287
  10,  443,  425,   16
  11,  443,   16,  289
  12,  444,  290,  388
  13,  702,  593,  652
  14,  860,  732,  798
  15, 1039,  906,  994
  16, 1072, 1043,  903
  17,  924,  733,   94
  18,  596,   67,  557
  19,  561,  496,  497
  20,  458,   48,  351
** ... 2090 like lines cut
*Nset, nset=Set-1, generate
    1,  1136,     1
*Elset, elset=Set-1, generate
    1,  2110,     1
** Section: Section-1
*Solid Section, elset=Set-1, material=Elastic
1.,
*End Part
**  
**
** ASSEMBLY
**
*Assembly, name=Assembly
**  
*Instance, name=Plate-1, part=Plate
*End Instance
**  
*Nset, nset=Set-1, instance=Plate-1
   1,   2,   3,   4,   5,   6,   7,   8, 262, 263, 264, 265, 266, 267, 268, 269
 270, 271, 272, 273, 274
*Elset, elset=Set-1, instance=Plate-1
  61, 249, 470, 472, 475, 478, 569, 570, 676, 678, 679, 681, 730, 732, 734, 756
 769, 775, 777, 781
*Elset, elset=_Surf-1_S2, internal, instance=Plate-1
 142, 153, 160, 164, 171, 520, 522, 526, 674, 690, 697, 699, 740, 742, 801
*Elset, elset=_Surf-1_S1, internal, instance=Plate-1
 530,
*Surface, type=ELEMENT, name=Surf-1
_Surf-1_S2, S2
_Surf-1_S1, S1
*End Assembly
** 
** MATERIALS
** 
*Material, name=Elastic
*Elastic
 3e+07, 0.3
** ----------------------------------------------------------------
** 
** STEP: Step-1
** 
*Step, name=Step-1
*Static
1., 1., 1e-05, 1.
** 
** BOUNDARY CONDITIONS
** 
** Name: BC-1 Type: Displacement/Rotation
*Boundary
Set-1, 1, 1
Set-1, 2, 2
** 
** LOADS
** 
** Name: Load-1   Type: Pressure
*Dsload
Surf-1, P, -5000.
** 
** OUTPUT REQUESTS
** 
*Restart, write, frequency=0
** 
** FIELD OUTPUT: F-Output-1
** 
*Output, field, variable=PRESELECT
** 
** HISTORY OUTPUT: H-Output-1
** 
*Output, history, variable=PRESELECT
*End Step
