*Heading
** Job name: Lab-7 Model name: Model-1
** Generated by: Abaqus/CAE 6.12-3
*Preprint, echo=NO, model=NO, history=NO, contact=NO
**
** PARTS
**
*Part, name=Part-1
*Node
      1,           0.,          25.
      2,           0.,         250.
      3,   7.72542477,    23.776413
      4,   14.6946316,   20.2254257
      5,   20.2254257,   14.6946316
      6,    23.776413,   7.72542477
      7,          25.,           0.
      8,         250.,           0.
      9,         250.,         250.
     10,           0.,         32.5
     11,           0.,          40.
     12,           0.,         47.5
     13,           0.,          55.
     14,           0.,         62.5
     15,           0.,          70.
     16,           0.,         77.5
     17,           0.,          85.
     18,           0.,         92.5
     19,           0.,         100.
     20,           0.,        107.5
** ... 1299 like lines cut
*Element, type=CPS3
   1,  132,    3,    4
   2,  467,  365,  466
   3,  133,   38,   37
   4,  408,  291,  404
   5,  135,    5,    6
   6,  135,  134,    5
   7,  136,    7,   67
   8,  137,    1,    3
   9,  215,  138,   11
  10,  215,   10,  137
  11,  215,   11,   10
  12,  139,   13,   12
  13,  140,   14,   13
  14,  141,   15,   14
  15,  142,   16,   15
  16,  143,   17,   16
  17,  144,   18,   17
  18,  145,   19,   18
  19,  146,   20,   19
  20,  147,   21,   20
** ... 2485 like lines cut
*Nset, nset=Set-1, generate
    1,  1319,     1
*Elset, elset=Set-1, generate
    1,  2505,     1
** Section: Section-1
*Solid Section, elset=Set-1, material=Material-1
10.,
*End Part
**  
**
** ASSEMBLY
**
*Assembly, name=Assembly
**  
*Instance, name=Part-1-1, part=Part-1
*End Instance
**  
*Nset, nset=Set-1, instance=Part-1-1
  1,  2, 10, 11, 12, 13, 14, 15, 16, 17, 18, 19, 20, 21, 22, 23
 24, 25, 26, 27, 28, 29, 30, 31, 32, 33, 34, 35, 36, 37, 38
*Elset, elset=Set-1, instance=Part-1-1
   3,  11,  12,  13,  14,  15,  16,  17,  18,  19,  20,  23,  24,  25,  26,  27
  28,  29,  30,  98, 130, 140, 163, 181, 183, 185, 187, 189, 191, 193
*Nset, nset=Set-2, instance=Part-1-1
  7,  8, 39, 40, 41, 42, 43, 44, 45, 46, 47, 48, 49, 50, 51, 52
 53, 54, 55, 56, 57, 58, 59, 60, 61, 62, 63, 64, 65, 66, 67
*Elset, elset=Set-2, instance=Part-1-1
   7,  37,  49,  50,  52,  53,  56, 135, 139, 146, 148, 150, 152, 154, 194, 209
 213, 215, 217, 302, 305, 380, 382, 384, 386, 388, 390, 392, 394, 398
*Elset, elset=_Surf-1_S2, internal, instance=Part-1-1
  37,  38,  66,  72,  75,  76,  77,  78,  83,  84,  86,  87,  88,  89,  90, 220
 231, 233, 235, 237, 239, 245, 257, 259, 261, 263, 265, 267, 269, 403, 429, 468
 506,
*Surface, type=ELEMENT, name=Surf-1
_Surf-1_S2, S2
*End Assembly
** 
** MATERIALS
** 
*Material, name=Material-1
*Elastic
200000., 0.25
** ----------------------------------------------------------------
** 
** STEP: Step-1
** 
*Step, name=Step-1
*Static
1., 1., 1e-05, 1.
** 
** BOUNDARY CONDITIONS
** 
** Name: BC-1 Type: Displacement/Rotation
*Boundary
Set-1, 1, 1
** Name: BC-2 Type: Displacement/Rotation
*Boundary
Set-2, 2, 2
** 
** LOADS
** 
** Name: Load-1   Type: Pressure
*Dsload
Surf-1, P, -0.01
** 
** OUTPUT REQUESTS
** 
*Restart, write, frequency=0
** 
** FIELD OUTPUT: F-Output-1
** 
*Output, field, variable=PRESELECT
** 
** HISTORY OUTPUT: H-Output-1
** 
*Output, history, variable=PRESELECT
*End Step
