*Heading
** Job name: Lab7_2 Model name: Model-1
** Generated by: Abaqus/CAE 6.12-3
*Preprint, echo=NO, model=NO, history=NO, contact=NO
**
** PARTS
**
*Part, name=Part-1
*Node
      1,          40.,   14.2857141
      2,          40.,   35.7142868
      3,          40.,           0.
      4,          40.,          50.
      5,          45.,   56.6666679
      6,          55.,          70.
      7,          71.,          70.
      8,          95.,          70.
      9,         105.,          60.
     10,         115.,          50.
     11,         115.,   35.7142868
     12,         115.,   14.2857141
     13,         115.,           0.
     14,         135.,          10.
     15,         145.,          30.
     16,         155.,          50.
     17,         155.,          66.
     18,         155.,          90.
     19,    143.21489,    101.78511
     20,   137.322327,   107.677673
** ... 586 like lines cut
*Element, type=CPS3
   1, 267, 159,   1
   2, 276,  67, 246
   3, 562,  67, 555
   4, 423, 403, 422
   5, 583, 530, 446
   6, 558, 538,  96
   7, 322, 321, 237
   8, 321, 319,  52
   9, 316,  53, 238
  10, 481, 114, 320
  11, 591, 569, 564
  12, 594, 580, 584
  13, 497, 105, 399
  14, 571, 252, 262
  15, 252,  21, 185
  16, 263, 260, 186
  17, 263, 110, 260
  18, 208, 340,  23
  19, 427, 391, 119
  20, 578, 523, 567
** ... 1039 like lines cut
*Nset, nset=Set-1, generate
   1,  606,    1
*Elset, elset=Set-1, generate
    1,  1059,     1
*Nset, nset=Output
  10,  11,  12,  13, 169, 170, 171, 172
*Elset, elset=Output
  35,  36,  37,  42, 208, 277, 278
** Section: Section-1
*Solid Section, elset=Set-1, material=Material-1
25.,
*End Part
**  
**
** ASSEMBLY
**
*Assembly, name=Assembly
**  
*Instance, name=Part-1-1, part=Part-1
*End Instance
**  
*Nset, nset=Set-1, instance=Part-1-1
 38,
*Nset, nset=Set-2, instance=Part-1-1
 4,
*Nset, nset=Set-3, instance=Part-1-1
 13,
*Elset, elset=Set-4, instance=Part-1-1
  35,  36,  37,  42, 208, 277, 278
*Nset, nset=Set-5, instance=Part-1-1
  10,  11,  12,  13, 169, 170, 171, 172
*End Assembly
** 
** MATERIALS
** 
*Material, name=Material-1
*Elastic
200000., 0.25
** ----------------------------------------------------------------
** 
** STEP: Step-1
** 
*Step, name=Step-1
*Static
1., 1., 1e-05, 1.
** 
** BOUNDARY CONDITIONS
** 
** Name: BC-1 Type: Displacement/Rotation
*Boundary
Set-2, 1, 1
Set-2, 2, 2
** Name: BC-2 Type: Displacement/Rotation
*Boundary
Set-3, 1, 1
Set-3, 2, 2
** 
** LOADS
** 
** Name: Load-1   Type: Concentrated force
*Cload
Set-1, 1, 700.
** 
** OUTPUT REQUESTS
** 
*Restart, write, frequency=0
** 
** FIELD OUTPUT: F-Output-1
** 
*Output, field, variable=PRESELECT
** 
** HISTORY OUTPUT: H-Output-1
** 
*Output, history, variable=PRESELECT
*End Step
