*Heading
** Job name: T3Example Model name: Model-1
** Generated by: Abaqus/CAE 6.12-1
*Preprint, echo=NO, model=NO, history=NO, contact=NO
**
** PARTS
**
*Part, name=Plate
*Node
      1,           0.,           0.
      2,           1.,           0.
      3,           2.,           0.
      4,           3.,           0.
      5,           4.,           0.
      6,           5.,           0.
      7,           6.,           0.
      8,           7.,           0.
      9,           8.,           0.
     10,           9.,           0.
     11,          10.,           0.
     12,          11.,           0.
     13,          12.,           0.
     14,          13.,           0.
     15,          14.,           0.
     16,          15.,           0.
     17,          16.,           0.
     18,          17.,           0.
     19,          18.,           0.
     20,          19.,           0.
** ... 316 like lines cut
*Element, type=CPS3
  1,   1,   2,  23
  2,  23,  22,   1
  3,   2,   3,  24
  4,  24,  23,   2
  5,   3,   4,  25
  6,  25,  24,   3
  7,   4,   5,  26
  8,  26,  25,   4
  9,   5,   6,  27
 10,  27,  26,   5
 11,   6,   7,  28
 12,  28,  27,   6
 13,   7,   8,  29
 14,  29,  28,   7
 15,   8,   9,  30
 16,  30,  29,   8
 17,   9,  10,  31
 18,  31,  30,   9
 19,  10,  11,  32
 20,  32,  31,  10
** ... 580 like lines cut
*Nset, nset=Set-1, generate
   1,  336,    1
*Elset, elset=Set-1, generate
   1,  600,    1
*Nset, nset=ControlPoint
 336,
*Elset, elset=Stress
 599, 600
** Section: Section-1
*Solid Section, elset=Set-1, material=Steel
1.,
*End Part
**  
**
** ASSEMBLY
**
*Assembly, name=Assembly
**  
*Instance, name=Plate-1, part=Plate
*End Instance
**  
*Nset, nset=EBC, instance=Plate-1, generate
   1,  316,   21
*Elset, elset=EBC, instance=Plate-1, generate
   2,  562,   40
*Elset, elset=_NBC_S2, internal, instance=Plate-1, generate
  39,  599,   40
*Surface, type=ELEMENT, name=NBC
_NBC_S2, S2
*End Assembly
** 
** MATERIALS
** 
*Material, name=Steel
*Elastic
 3e+07, 0.3
** ----------------------------------------------------------------
** 
** STEP: Step-1
** 
*Step, name=Step-1
*Static
1., 1., 1e-05, 1.
** 
** BOUNDARY CONDITIONS
** 
** Name: NBC Type: Displacement/Rotation
*Boundary
NBC, 1, 1
NBC, 2, 2
** 
** LOADS
** 
** Name: NBC   Type: Pressure
*Dsload
NBC, P, -5000.
** 
** OUTPUT REQUESTS
** 
*Restart, write, frequency=0
** 
** FIELD OUTPUT: F-Output-1
** 
*Output, field, variable=PRESELECT
** 
** HISTORY OUTPUT: H-Output-2
** 
*Output, history
*Node Output, nset=Plate-1.ControlPoint
U1, U2, U3, UR1, UR2, UR3
** 
** HISTORY OUTPUT: H-Output-3
** 
*Element Output, elset=Plate-1.Stress
INV3, PRESS, S11, S12, S13, S22, S23, S33, SP, TRESC
** 
** HISTORY OUTPUT: H-Output-1
** 
*Output, history, variable=PRESELECT
*End Step
