*Heading
** Job name: Lab9-1 Model name: Model-1
** Generated by: Abaqus/CAE 6.12-3
*Preprint, echo=NO, model=NO, history=NO, contact=NO
**
** PARTS
**
*Part, name=Part-1
*Node
      1,           0.,          25.
      2,           0.,         250.
      3,   7.72542477,    23.776413
      4,   14.6946316,   20.2254257
      5,   20.2254257,   14.6946316
      6,    23.776413,   7.72542477
      7,          25.,           0.
      8,         250.,           0.
      9,         250.,         250.
     10,           0.,   32.2580643
     11,           0.,   39.5161285
     12,           0.,   46.7741928
     13,           0.,   54.0322571
     14,           0.,   61.2903214
     15,           0.,   68.5483856
     16,           0.,   75.8064499
     17,           0.,   83.0645142
     18,           0.,   90.3225784
     19,           0.,   97.5806427
     20,           0.,   104.838707
** ... 1378 like lines cut
*Element, type=CPS4
   1,  133,    4,    5, 1311
   2,  182,  252,  258,  183
   3,  134,   39,   38,  163
   4,  149,   23,   22,  148
   5,  142,   15,   14,  141
   6, 1313, 1311,  135,  861
   7,    7,   68,  136,    6
   8,    1,    3,  137,   10
   9,  328,  137,    3,    4
  10,  138,   11,   10,  137
  11,  139,   12,   11,  138
  12,   13,  140,  141,   14
  13,  143,   16,   15,  142
  14,  224,   17,   16,  143
  15,   18,  144,  145,   19
  16,   19,  145,  146,   20
  17,   20,  146,  147,   21
  18,  424,  423,  302,  284
  19,  255,  177,  176,  254
  20,   21,  147,  148,   22
** ... 1311 like lines cut
*Nset, nset=Set-1, generate
    1,  1398,     1
*Elset, elset=Set-1, generate
    1,  1331,     1
** Section: Section-1
*Solid Section, elset=Set-1, material=Material-1
10.,
*End Part
**  
**
** ASSEMBLY
**
*Assembly, name=Assembly
**  
*Instance, name=Part-1-1, part=Part-1
*End Instance
**  
*Nset, nset=Set-1, instance=Part-1-1
  1,  2, 10, 11, 12, 13, 14, 15, 16, 17, 18, 19, 20, 21, 22, 23
 24, 25, 26, 27, 28, 29, 30, 31, 32, 33, 34, 35, 36, 37, 38, 39
*Elset, elset=Set-1, instance=Part-1-1
   3,   4,   5,   8,  10,  11,  12,  13,  14,  15,  16,  17,  20,  21,  22,  23
  24,  25,  26,  27,  28,  29,  30,  90, 117, 118, 119, 128, 136, 138, 147
*Nset, nset=Set-2, instance=Part-1-1
  7,  8, 40, 41, 42, 43, 44, 45, 46, 47, 48, 49, 50, 51, 52, 53
 54, 55, 56, 57, 58, 59, 60, 61, 62, 63, 64, 65, 66, 67, 68
*Elset, elset=Set-2, instance=Part-1-1
   7,  33,  35,  36,  37,  38,  39,  40,  41,  42,  43,  44,  45,  48,  52,  54
  56,  57,  58, 116, 121, 122, 125, 126, 127, 129, 130, 149, 159, 168
*Elset, elset=_Surf-1_S2, internal, instance=Part-1-1
 33,
*Elset, elset=_Surf-1_S3, internal, instance=Part-1-1
  34,  76,  81,  88, 152, 153, 154, 158, 192, 285
*Elset, elset=_Surf-1_S1, internal, instance=Part-1-1
  59,  71,  72,  73,  74,  85,  89, 150, 151, 155, 156, 157, 178, 185, 194, 195
 257, 258, 259, 306
*Elset, elset=_Surf-1_S4, internal, instance=Part-1-1
 199, 200
*Surface, type=ELEMENT, name=Surf-1
_Surf-1_S2, S2
_Surf-1_S3, S3
_Surf-1_S4, S4
_Surf-1_S1, S1
*End Assembly
** 
** MATERIALS
** 
*Material, name=Material-1
*Elastic
200000., 0.25
** ----------------------------------------------------------------
** 
** STEP: Step-1
** 
*Step, name=Step-1
*Static
1., 1., 1e-05, 1.
** 
** BOUNDARY CONDITIONS
** 
** Name: BC-1 Type: Displacement/Rotation
*Boundary
Set-1, 1, 1
** Name: BC-2 Type: Displacement/Rotation
*Boundary
Set-2, 2, 2
** 
** LOADS
** 
** Name: Load-1   Type: Pressure
*Dsload
Surf-1, P, -0.01
** 
** OUTPUT REQUESTS
** 
*Restart, write, frequency=0
** 
** FIELD OUTPUT: F-Output-1
** 
*Output, field, variable=PRESELECT
** 
** HISTORY OUTPUT: H-Output-1
** 
*Output, history, variable=PRESELECT
*End Step
