*Heading
** Job name: Lab9_2 Model name: Model-1
** Generated by: Abaqus/CAE 6.12-3
*Preprint, echo=NO, model=NO, history=NO, contact=NO
**
** PARTS
**
*Part, name=Part-1
*Node
      1,          40.,        18.75
      2,          40.,        31.25
      3,          40.,           0.
      4,          40.,          50.
      5,          45.,   56.6666679
      6,          55.,          70.
      7,          71.,          70.
      8,          95.,          70.
      9,         105.,          60.
     10,         115.,          50.
     11,         115.,   35.7142868
     12,         115.,   14.2857141
     13,         115.,           0.
     14,         135.,          10.
     15,         145.,          30.
     16,         155.,          50.
     17,         155.,          66.
     18,         155.,          90.
     19,    143.21489,    101.78511
     20,   137.322327,   107.677673
** ... 649 like lines cut
*Element, type=CPS4
  1, 248, 156, 157,  69
  2,  68, 243, 242, 269
  3, 344, 507, 607, 268
  4, 400,  71, 425, 419
  5, 630, 631, 438, 419
  6, 479, 547, 606, 468
  7, 316, 384, 378, 313
  8, 235,  53, 316, 313
  9, 114, 317, 505, 471
 10, 558, 549, 109, 574
 11, 668, 563, 570, 554
 12, 666, 395, 443, 535
 13, 262, 183,  22, 260
 14, 252, 348, 347, 105
 15, 263, 184, 185, 115
 16, 111, 260, 263, 382
 17,  23, 206, 337, 601
 18, 119, 422, 386, 337
 19, 532, 624, 527, 616
 20, 459, 418, 283, 602
** ... 572 like lines cut
*Nset, nset=Set-1, generate
   1,  669,    1
*Elset, elset=Set-1, generate
   1,  592,    1
*Nset, nset=Output
  10,  11,  12,  13, 167, 168, 169, 170
*Elset, elset=Output
  30,  31,  32,  36, 179, 236, 237
** Section: Section-1
*Solid Section, elset=Set-1, material=Material-1
25.,
*End Part
**  
**
** ASSEMBLY
**
*Assembly, name=Assembly
**  
*Instance, name=Part-1-1, part=Part-1
*End Instance
**  
*Nset, nset=Set-1, instance=Part-1-1
 38,
*Nset, nset=Set-2, instance=Part-1-1
 4,
*Nset, nset=Set-3, instance=Part-1-1
 13,
*Nset, nset=Set-4, instance=Part-1-1
  10,  11,  12,  13, 167, 168, 169, 170
*End Assembly
** 
** MATERIALS
** 
*Material, name=Material-1
*Elastic
200000., 0.25
** ----------------------------------------------------------------
** 
** STEP: Step-1
** 
*Step, name=Step-1
*Static
1., 1., 1e-05, 1.
** 
** BOUNDARY CONDITIONS
** 
** Name: BC-1 Type: Displacement/Rotation
*Boundary
Set-2, 1, 1
Set-2, 2, 2
** Name: BC-2 Type: Displacement/Rotation
*Boundary
Set-3, 1, 1
Set-3, 2, 2
** 
** LOADS
** 
** Name: Load-1   Type: Concentrated force
*Cload
Set-1, 1, 700.
** 
** OUTPUT REQUESTS
** 
*Restart, write, frequency=0
** 
** FIELD OUTPUT: F-Output-1
** 
*Output, field, variable=PRESELECT
** 
** HISTORY OUTPUT: H-Output-1
** 
*Output, history, variable=PRESELECT
*End Step
